
#======================================================================
# CRYSTAL DATA
#----------------------------------------------------------------------
data_VESTA_phase_1

_chemical_name_common                  'Layer (20)                            '
_cell_length_a                         2.984304
_cell_length_b                         2.984287
_cell_length_c                         79.763031
_cell_angle_alpha                      90.000000
_cell_angle_beta                       90.000000
_cell_angle_gamma                      119.999809
_cell_volume                           615.200564
_space_group_name_H-M_alt              'P 1'
_space_group_IT_number                 1

loop_
_space_group_symop_operation_xyz
   'x, y, z'

loop_
   _atom_site_label
   _atom_site_occupancy
   _atom_site_fract_x
   _atom_site_fract_y
   _atom_site_fract_z
   _atom_site_adp_type
   _atom_site_U_iso_or_equiv
   _atom_site_type_symbol
   O1         1.0     0.000000     0.000000     0.497916    Uiso  ? O
   O2         1.0     0.333333     0.666667     0.528685    Uiso  ? O
   O3         1.0     -0.000000     -0.000000     0.590204    Uiso  ? O
   O4         1.0     0.333333     0.666667     0.620994    Uiso  ? O
   O5         1.0     -0.000000     -0.000000     0.682581    Uiso  ? O
   O6         1.0     0.333333     0.666667     0.713345    Uiso  ? O
   O7         1.0     0.666667     0.333333     0.467128    Uiso  ? O
   O8         1.0     0.666667     0.333333     0.559437    Uiso  ? O
   O9         1.0     0.666667     0.333333     0.651782    Uiso  ? O
   Mg1        1.0     0.000000     0.000000     0.451565    Uiso  ? Mg
   Mg2        1.0     -0.000000     -0.000000     0.544197    Uiso  ? Mg
   Mg3        1.0     -0.000000     -0.000000     0.636531    Uiso  ? Mg
   Mg4        1.0     -0.000000     -0.000000     0.729550    Uiso  ? Mg
   Mg5        1.0     0.666667     0.333333     0.513442    Uiso  ? Mg
   Mg6        1.0     0.666667     0.333333     0.605740    Uiso  ? Mg
   Mg7        1.0     0.666667     0.333333     0.698127    Uiso  ? Mg
   Mg8        1.0     0.333333     0.666667     0.482673    Uiso  ? Mg
   Mg9        1.0     0.333333     0.666667     0.574954    Uiso  ? Mg
   Mg10       1.0     0.333333     0.666667     0.667326    Uiso  ? Mg
   Al1        1.0     0.000000     0.000000     0.249665    Uiso  ? Al
   Al2        1.0     0.000000     0.000000     0.333723    Uiso  ? Al
   Al3        1.0     0.000000     0.000000     0.417310    Uiso  ? Al
   Al4        1.0     0.666667     0.333333     0.305878    Uiso  ? Al
   Al5        1.0     0.666667     0.333333     0.389600    Uiso  ? Al
   Al6        1.0     0.333333     0.666667     0.278023    Uiso  ? Al
   Al7        1.0     0.333333     0.666667     0.361624    Uiso  ? Al
