
#======================================================================
# CRYSTAL DATA
#----------------------------------------------------------------------
data_VESTA_phase_1

_chemical_name_common                  'Layer26                               '
_cell_length_a                         2.993473
_cell_length_b                         2.993473
_cell_length_c                         71.771637
_cell_angle_alpha                      90.000000
_cell_angle_beta                       90.000000
_cell_angle_gamma                      120.000000
_cell_volume                           556.972927
_space_group_name_H-M_alt              'P 1'
_space_group_IT_number                 1

loop_
_space_group_symop_operation_xyz
   'x, y, z'

loop_
   _atom_site_label
   _atom_site_occupancy
   _atom_site_fract_x
   _atom_site_fract_y
   _atom_site_fract_z
   _atom_site_adp_type
   _atom_site_U_iso_or_equiv
   _atom_site_type_symbol
   O1         1.0     0.333333     0.666667     0.432086    Uiso  ? O
   O2         1.0     0.000000     0.000000     0.501412    Uiso  ? O
   O3         1.0     0.333333     0.666667     0.535743    Uiso  ? O
   O4         1.0     0.000000     0.000000     0.604417    Uiso  ? O
   O5         1.0     0.333333     0.666667     0.638739    Uiso  ? O
   O6         1.0     -0.000000     -0.000000     0.707268    Uiso  ? O
   O7         1.0     0.333333     0.666667     0.741264    Uiso  ? O
   O8         1.0     0.666667     0.333333     0.467050    Uiso  ? O
   O9         1.0     0.666667     0.333333     0.570088    Uiso  ? O
   O10        1.0     0.666667     0.333333     0.673039    Uiso  ? O
   O11        1.0     0.666667     0.333333     0.773691    Uiso  ? O
   Mg1        1.0     0.000000     0.000000     0.450957    Uiso  ? Mg
   Mg2        1.0     0.000000     0.000000     0.553965    Uiso  ? Mg
   Mg3        1.0     -0.000000     -0.000000     0.656938    Uiso  ? Mg
   Mg4        1.0     -0.000000     -0.000000     0.760511    Uiso  ? Mg
   Mg5        1.0     0.666667     0.333333     0.519626    Uiso  ? Mg
   Mg6        1.0     0.666667     0.333333     0.622631    Uiso  ? Mg
   Mg7        1.0     0.666667     0.333333     0.725576    Uiso  ? Mg
   Mg8        1.0     0.333333     0.666667     0.485290    Uiso  ? Mg
   Mg9        1.0     0.333333     0.666667     0.588312    Uiso  ? Mg
   Mg10       1.0     0.333333     0.666667     0.691221    Uiso  ? Mg
   Al1        1.0     -0.000000     -0.000000     0.227245    Uiso  ? Al
   Al2        1.0     -0.000000     -0.000000     0.320629    Uiso  ? Al
   Al3        1.0     0.000000     0.000000     0.412858    Uiso  ? Al
   Al4        1.0     0.666667     0.333333     0.289580    Uiso  ? Al
   Al5        1.0     0.666667     0.333333     0.383128    Uiso  ? Al
   Al6        1.0     0.333333     0.666667     0.258667    Uiso  ? Al
   Al7        1.0     0.333333     0.666667     0.351861    Uiso  ? Al
